data_image0
_chemical_formula_structural       C288
_chemical_formula_sum              "C288"
_cell_length_a       14.88796413204522
_cell_length_b       14.88796413204522
_cell_length_c       14.88796413204522
_cell_angle_alpha    90.0
_cell_angle_beta     90.0
_cell_angle_gamma    90.0

_space_group_name_H-M_alt    "P 1"
_space_group_IT_number       1

loop_
  _space_group_symop_operation_xyz
  'x, y, z'

loop_
  _atom_site_type_symbol
  _atom_site_label
  _atom_site_symmetry_multiplicity
  _atom_site_fract_x
  _atom_site_fract_y
  _atom_site_fract_z
  _atom_site_occupancy
  C   C1        1.0  0.2194743622949903  0.9514359271852907  0.6046869060276837  1.0000
  C   C2        1.0  0.11505212571720855  0.045282169078547  0.2612692444457211  1.0000
  C   C3        1.0  0.884947874282799  0.9547178309214605  0.2612692444457212  1.0000
  C   C4        1.0  0.884947874282799  0.04528216907854701  0.7387307555542865  1.0000
  C   C5        1.0  0.11505212571720858  0.9547178309214605  0.7387307555542864  1.0000
  C   C6        1.0  0.33854465731427813  0.4079477617467687  0.16408356554384335  1.0000
  C   C7        1.0  0.33854465731427835  0.5920522382532387  0.8359164344561645  1.0000
  C   C8        1.0  0.7387307555542862  0.11505212571720856  0.9547178309214605  1.0000
  C   C9        1.0  0.6614553426857291  0.40794776174676867  0.8359164344561644  1.0000
  C   C10       1.0  0.8359164344561643  0.338544657314278  0.5920522382532387  1.0000
  C   C11       1.0  0.16408356554384326  0.33854465731427824  0.4079477617467688  1.0000
  C   C12       1.0  0.16408356554384335  0.6614553426857291  0.5920522382532387  1.0000
  C   C13       1.0  0.8359164344561643  0.6614553426857291  0.40794776174676867  1.0000
  C   C14       1.0  0.40794776174676883  0.8359164344561643  0.661455342685729  1.0000
  C   C15       1.0  0.5920522382532387  0.16408356554384337  0.6614553426857291  1.0000
  C   C16       1.0  0.6614553426857293  0.5920522382532385  0.16408356554384343  1.0000
  C   C17       1.0  0.4079477617467687  0.16408356554384324  0.33854465731427824  1.0000
  C   C18       1.0  0.7387307555542862  0.884947874282799  0.04528216907854701  1.0000
  C   C19       1.0  0.26126924444572097  0.11505212571720859  0.045282169078547076  1.0000
  C   C20       1.0  0.7387307555542865  0.04528216907854692  0.11505212571720866  1.0000
  C   C21       1.0  0.7387307555542862  0.9547178309214603  0.8849478742827992  1.0000
  C   C22       1.0  0.11505212571720878  0.2612692444457212  0.9547178309214605  1.0000
  C   C23       1.0  0.8849478742827991  0.26126924444572125  0.04528216907854721  1.0000
  C   C24       1.0  0.884947874282799  0.7387307555542862  0.9547178309214605  1.0000
  C   C25       1.0  0.11505212571720856  0.7387307555542864  0.04528216907854691  1.0000
  C   C26       1.0  0.2612692444457212  0.884947874282799  0.9547178309214602  1.0000
  C   C27       1.0  0.045282169078547006  0.1150521257172085  0.7387307555542865  1.0000
  C   C28       1.0  0.04528216907854703  0.884947874282799  0.26126924444572114  1.0000
  C   C29       1.0  0.9547178309214603  0.11505212571720866  0.26126924444572125  1.0000
  C   C30       1.0  0.045282169078547124  0.26126924444572114  0.11505212571720863  1.0000
  C   C31       1.0  0.9547178309214605  0.26126924444572125  0.8849478742827991  1.0000
  C   C32       1.0  0.045282169078547055  0.7387307555542864  0.884947874282799  1.0000
  C   C33       1.0  0.9547178309214603  0.7387307555542862  0.11505212571720862  1.0000
  C   C34       1.0  0.9547178309214605  0.8849478742827991  0.7387307555542862  1.0000
  C   C35       1.0  0.2612692444457211  0.9547178309214605  0.11505212571720863  1.0000
  C   C36       1.0  0.5920522382532385  0.8359164344561644  0.33854465731427813  1.0000
  C   C37       1.0  0.5920522382532385  0.338544657314278  0.16408356554384332  1.0000
  C   C38       1.0  0.5920522382532387  0.1640835655438432  0.33854465731427824  1.0000
  C   C39       1.0  0.40794776174676894  0.8359164344561643  0.33854465731427824  1.0000
  C   C40       1.0  0.5920522382532388  0.8359164344561644  0.6614553426857291  1.0000
  C   C41       1.0  0.4079477617467688  0.16408356554384335  0.6614553426857293  1.0000
  C   C42       1.0  0.5920522382532385  0.6614553426857291  0.16408356554384335  1.0000
  C   C43       1.0  0.40794776174676883  0.661455342685729  0.8359164344561644  1.0000
  C   C44       1.0  0.16408356554384326  0.3385446573142782  0.5920522382532387  1.0000
  C   C45       1.0  0.5920522382532387  0.33854465731427813  0.8359164344561645  1.0000
  C   C46       1.0  0.6614553426857291  0.16408356554384335  0.5920522382532388  1.0000
  C   C47       1.0  0.6614553426857291  0.8359164344561643  0.4079477617467688  1.0000
  C   C48       1.0  0.3385446573142782  0.8359164344561644  0.5920522382532387  1.0000
  C   C49       1.0  0.3385446573142782  0.1640835655438432  0.40794776174676883  1.0000
  C   C50       1.0  0.16408356554384332  0.5920522382532387  0.6614553426857291  1.0000
  C   C51       1.0  0.8359164344561643  0.40794776174676867  0.6614553426857291  1.0000
  C   C52       1.0  0.4079477617467688  0.33854465731427824  0.16408356554384346  1.0000
  C   C53       1.0  0.4079477617467689  0.33854465731427824  0.8359164344561645  1.0000
  C   C54       1.0  0.8359164344561644  0.33854465731427813  0.40794776174676894  1.0000
  C   C55       1.0  0.1640835655438434  0.6614553426857291  0.4079477617467688  1.0000
  C   C56       1.0  0.4079477617467687  0.6614553426857291  0.1640835655438434  1.0000
  C   C57       1.0  0.5920522382532388  0.6614553426857291  0.8359164344561643  1.0000
  C   C58       1.0  0.3385446573142782  0.8359164344561643  0.40794776174676894  1.0000
  C   C59       1.0  0.3385446573142782  0.16408356554384324  0.5920522382532387  1.0000
  C   C60       1.0  0.661455342685729  0.16408356554384335  0.40794776174676883  1.0000
  C   C61       1.0  0.6614553426857291  0.8359164344561644  0.5920522382532387  1.0000
  C   C62       1.0  0.8359164344561644  0.6614553426857291  0.5920522382532385  1.0000
  C   C63       1.0  0.8359164344561644  0.4079477617467687  0.33854465731427824  1.0000
  C   C64       1.0  0.1640835655438432  0.4079477617467687  0.661455342685729  1.0000
  C   C65       1.0  0.8359164344561644  0.5920522382532387  0.6614553426857291  1.0000
  C   C66       1.0  0.6614553426857293  0.5920522382532387  0.8359164344561644  1.0000
  C   C67       1.0  0.661455342685729  0.4079477617467687  0.16408356554384337  1.0000
  C   C68       1.0  0.3385446573142782  0.5920522382532387  0.16408356554384324  1.0000
  C   C69       1.0  0.3385446573142781  0.40794776174676883  0.8359164344561645  1.0000
  C   C70       1.0  0.16408356554384318  0.5920522382532387  0.33854465731427813  1.0000
  C   C71       1.0  0.8359164344561645  0.5920522382532387  0.33854465731427813  1.0000
  C   C72       1.0  0.26126924444572125  0.045282169078546965  0.8849478742827992  1.0000
  C   C73       1.0  0.11505212571720867  0.9547178309214603  0.261269244445721  1.0000
  C   C74       1.0  0.384947874282799  0.4547178309214603  0.23873075555428394  1.0000
  C   C75       1.0  0.6150521257172082  0.5452821690785471  0.23873075555428397  1.0000
  C   C76       1.0  0.6150521257172084  0.4547178309214605  0.7612692444457237  1.0000
  C   C77       1.0  0.3849478742827991  0.5452821690785473  0.7612692444457239  1.0000
  C   C78       1.0  0.7612692444457235  0.5452821690785472  0.38494787428279914  1.0000
  C   C79       1.0  0.7612692444457235  0.45471783092146045  0.6150521257172084  1.0000
  C   C80       1.0  0.7612692444457235  0.38494787428279903  0.5452821690785472  1.0000
  C   C81       1.0  0.238730755554284  0.5452821690785471  0.6150521257172084  1.0000
  C   C82       1.0  0.6150521257172086  0.7612692444457235  0.4547178309214605  1.0000
  C   C83       1.0  0.3849478742827991  0.7612692444457237  0.5452821690785471  1.0000
  C   C84       1.0  0.3849478742827989  0.23873075555428375  0.45471783092146045  1.0000
  C   C85       1.0  0.6150521257172082  0.23873075555428383  0.5452821690785471  1.0000
  C   C86       1.0  0.5452821690785471  0.6150521257172084  0.238730755554284  1.0000
  C   C87       1.0  0.4547178309214605  0.3849478742827989  0.23873075555428402  1.0000
  C   C88       1.0  0.2387307555542839  0.45471783092146045  0.384947874282799  1.0000
  C   C89       1.0  0.5452821690785472  0.38494787428279903  0.7612692444457237  1.0000
  C   C90       1.0  0.7612692444457235  0.6150521257172084  0.45471783092146056  1.0000
  C   C91       1.0  0.23873075555428383  0.384947874282799  0.45471783092146034  1.0000
  C   C92       1.0  0.7612692444457235  0.4547178309214605  0.3849478742827992  1.0000
  C   C93       1.0  0.7612692444457235  0.5452821690785472  0.6150521257172082  1.0000
  C   C94       1.0  0.384947874282799  0.23873075555428377  0.5452821690785472  1.0000
  C   C95       1.0  0.6150521257172084  0.2387307555542838  0.4547178309214605  1.0000
  C   C96       1.0  0.6150521257172082  0.7612692444457235  0.5452821690785471  1.0000
  C   C97       1.0  0.384947874282799  0.7612692444457235  0.4547178309214607  1.0000
  C   C98       1.0  0.23873075555428394  0.6150521257172082  0.5452821690785472  1.0000
  C   C99       1.0  0.45471783092146045  0.3849478742827991  0.7612692444457237  1.0000
  C   C100      1.0  0.4547178309214605  0.6150521257172084  0.238730755554284  1.0000
  C   C101      1.0  0.5452821690785471  0.3849478742827989  0.23873075555428397  1.0000
  C   C102      1.0  0.45471783092146045  0.23873075555428377  0.384947874282799  1.0000
  C   C103      1.0  0.5452821690785471  0.2387307555542839  0.6150521257172084  1.0000
  C   C104      1.0  0.45471783092146056  0.7612692444457235  0.6150521257172082  1.0000
  C   C105      1.0  0.5452821690785472  0.7612692444457235  0.38494787428279914  1.0000
  C   C106      1.0  0.5452821690785472  0.6150521257172081  0.7612692444457234  1.0000
  C   C107      1.0  0.884947874282799  0.04528216907854679  0.26126924444572125  1.0000
  C   C108      1.0  0.45471783092146056  0.6150521257172084  0.7612692444457234  1.0000
  C   C109      1.0  0.45471783092146045  0.7612692444457235  0.38494787428279914  1.0000
  C   C110      1.0  0.9547178309214605  0.884947874282799  0.26126924444572114  1.0000
  C   C111      1.0  0.045282169078547096  0.11505212571720849  0.261269244445721  1.0000
  C   C112      1.0  0.9547178309214605  0.11505212571720859  0.7387307555542862  1.0000
  C   C113      1.0  0.045282169078547194  0.884947874282799  0.7387307555542864  1.0000
  C   C114      1.0  0.9547178309214603  0.7387307555542861  0.884947874282799  1.0000
  C   C115      1.0  0.045282169078547  0.7387307555542864  0.11505212571720858  1.0000
  C   C116      1.0  0.8849478742827991  0.2612692444457212  0.9547178309214605  1.0000
  C   C117      1.0  0.9547178309214605  0.2612692444457212  0.1150521257172088  1.0000
  C   C118      1.0  0.7387307555542861  0.8849478742827991  0.9547178309214605  1.0000
  C   C119      1.0  0.7387307555542865  0.11505212571720852  0.04528216907854719  1.0000
  C   C120      1.0  0.2612692444457211  0.11505212571720864  0.9547178309214605  1.0000
  C   C121      1.0  0.2612692444457212  0.884947874282799  0.04528216907854701  1.0000
  C   C122      1.0  0.8849478742827991  0.9547178309214603  0.7387307555542861  1.0000
  C   C123      1.0  0.11505212571720855  0.045282169078546965  0.7387307555542866  1.0000
  C   C124      1.0  0.04528216907854713  0.2612692444457212  0.8849478742827991  1.0000
  C   C125      1.0  0.5452821690785472  0.7612692444457239  0.6150521257172081  1.0000
  C   C126      1.0  0.11505212571720859  0.2612692444457211  0.0452821690785472  1.0000
  C   C127      1.0  0.884947874282799  0.7387307555542864  0.04528216907854696  1.0000
  C   C128      1.0  0.5452821690785471  0.23873075555428383  0.38494787428279903  1.0000
  C   C129      1.0  0.45471783092146045  0.23873075555428377  0.6150521257172086  1.0000
  C   C130      1.0  0.7612692444457237  0.6150521257172082  0.5452821690785471  1.0000
  C   C131      1.0  0.7612692444457237  0.38494787428279903  0.45471783092146056  1.0000
  C   C132      1.0  0.23873075555428386  0.384947874282799  0.5452821690785472  1.0000
  C   C133      1.0  0.23873075555428394  0.6150521257172084  0.45471783092146056  1.0000
  C   C134      1.0  0.1150521257172086  0.7387307555542862  0.9547178309214603  1.0000
  C   C135      1.0  0.6150521257172082  0.5452821690785471  0.7612692444457237  1.0000
  C   C136      1.0  0.384947874282799  0.5452821690785471  0.23873075555428397  1.0000
  C   C137      1.0  0.6150521257172084  0.45471783092146056  0.2387307555542839  1.0000
  C   C138      1.0  0.7387307555542862  0.9547178309214602  0.1150521257172086  1.0000
  C   C139      1.0  0.7387307555542864  0.04528216907854689  0.8849478742827992  1.0000
  C   C140      1.0  0.2612692444457213  0.9547178309214601  0.8849478742827992  1.0000
  C   C141      1.0  0.261269244445721  0.04528216907854694  0.11505212571720863  1.0000
  C   C142      1.0  0.38494787428279903  0.45471783092146034  0.7612692444457237  1.0000
  C   C143      1.0  0.16408356554384337  0.40794776174676883  0.33854465731427824  1.0000
  C   C144      1.0  0.8385446573142787  0.9079477617467693  0.6640835655438453  1.0000
  C   C145      1.0  0.8385446573142789  0.09205223825323826  0.33591643445616215  1.0000
  C   C146      1.0  0.2805256377050154  0.4514359271852906  0.8953130939723247  1.0000
  C   C147      1.0  0.2805256377050156  0.5485640728147169  0.10468690602768305  1.0000
  C   C148      1.0  0.719474362294992  0.45143592718529035  0.10468690602768292  1.0000
  C   C149      1.0  0.6046869060276837  0.9514359271852907  0.21947436229499026  1.0000
  C   C150      1.0  0.6046869060276837  0.0485640728147166  0.7805256377050172  1.0000
  C   C151      1.0  0.3953130939723238  0.9514359271852907  0.7805256377050173  1.0000
  C   C152      1.0  0.7194743622949922  0.5485640728147166  0.8953130939723247  1.0000
  C   C153      1.0  0.39531309397232384  0.04856407281471653  0.21947436229499034  1.0000
  C   C154      1.0  0.2194743622949904  0.6046869060276836  0.9514359271852909  1.0000
  C   C155      1.0  0.21947436229499037  0.39531309397232384  0.048564072814716655  1.0000
  C   C156      1.0  0.7805256377050172  0.39531309397232345  0.9514359271852909  1.0000
  C   C157      1.0  0.9514359271852909  0.7805256377050173  0.39531309397232367  1.0000
  C   C158      1.0  0.048564072814716655  0.21947436229499026  0.3953130939723238  1.0000
  C   C159      1.0  0.9514359271852908  0.21947436229499032  0.6046869060276836  1.0000
  C   C160      1.0  0.7805256377050172  0.6046869060276837  0.048564072814716655  1.0000
  C   C161      1.0  0.04856407281471656  0.780525637705017  0.6046869060276838  1.0000
  C   C162      1.0  0.10468690602768282  0.719474362294992  0.4514359271852904  1.0000
  C   C163      1.0  0.8953130939723246  0.2805256377050153  0.4514359271852907  1.0000
  C   C164      1.0  0.10468690602768295  0.4514359271852906  0.28052563770501543  1.0000
  C   C165      1.0  0.7194743622949923  0.8953130939723247  0.4514359271852906  1.0000
  C   C166      1.0  0.2805256377050153  0.8953130939723245  0.5485640728147168  1.0000
  C   C167      1.0  0.28052563770501543  0.10468690602768282  0.45143592718529063  1.0000
  C   C168      1.0  0.719474362294992  0.10468690602768285  0.5485640728147168  1.0000
  C   C169      1.0  0.5485640728147168  0.719474362294992  0.10468690602768287  1.0000
  C   C170      1.0  0.10468690602768295  0.28052563770501554  0.5485640728147168  1.0000
  C   C171      1.0  0.45143592718529063  0.28052563770501554  0.104686906027683  1.0000
  C   C172      1.0  0.4514359271852906  0.7194743622949921  0.8953130939723247  1.0000
  C   C173      1.0  0.5485640728147168  0.8953130939723247  0.7194743622949922  1.0000
  C   C174      1.0  0.45143592718529063  0.8953130939723246  0.2805256377050153  1.0000
  C   C175      1.0  0.5485640728147166  0.10468690602768281  0.2805256377050156  1.0000
  C   C176      1.0  0.4514359271852905  0.10468690602768288  0.7194743622949921  1.0000
  C   C177      1.0  0.8953130939723248  0.7194743622949922  0.5485640728147168  1.0000
  C   C178      1.0  0.5485640728147166  0.28052563770501515  0.8953130939723247  1.0000
  C   C179      1.0  0.10468690602768284  0.5485640728147168  0.7194743622949918  1.0000
  C   C180      1.0  0.9514359271852908  0.6046869060276837  0.7805256377050173  1.0000
  C   C181      1.0  0.9514359271852908  0.3953130939723238  0.21947436229499032  1.0000
  C   C182      1.0  0.9514359271852909  0.7805256377050172  0.6046869060276837  1.0000
  C   C183      1.0  0.04856407281471666  0.7805256377050169  0.39531309397232367  1.0000
  C   C184      1.0  0.9514359271852908  0.2194743622949902  0.3953130939723238  1.0000
  C   C185      1.0  0.04856407281471662  0.39531309397232384  0.21947436229499034  1.0000
  C   C186      1.0  0.9514359271852908  0.39531309397232367  0.7805256377050172  1.0000
  C   C187      1.0  0.04856407281471666  0.6046869060276837  0.780525637705017  1.0000
  C   C188      1.0  0.04856407281471666  0.21947436229499023  0.6046869060276837  1.0000
  C   C189      1.0  0.9514359271852908  0.6046869060276837  0.21947436229499032  1.0000
  C   C190      1.0  0.3953130939723237  0.7805256377050172  0.9514359271852908  1.0000
  C   C191      1.0  0.6046869060276837  0.7805256377050172  0.048564072814716586  1.0000
  C   C192      1.0  0.6046869060276837  0.21947436229499023  0.9514359271852909  1.0000
  C   C193      1.0  0.21947436229499026  0.04856407281471658  0.39531309397232384  1.0000
  C   C194      1.0  0.780525637705017  0.9514359271852908  0.3953130939723237  1.0000
  C   C195      1.0  0.780525637705017  0.04856407281471662  0.6046869060276838  1.0000
  C   C196      1.0  0.3953130939723237  0.21947436229499026  0.0485640728147167  1.0000
  C   C197      1.0  0.04856407281471657  0.6046869060276837  0.21947436229499045  1.0000
  C   C198      1.0  0.2194743622949904  0.6046869060276837  0.04856407281471658  1.0000
  C   C199      1.0  0.7805256377050172  0.3953130939723235  0.04856407281471669  1.0000
  C   C200      1.0  0.0485640728147166  0.39531309397232367  0.7805256377050172  1.0000
  C   C201      1.0  0.6046869060276837  0.7805256377050172  0.9514359271852907  1.0000
  C   C202      1.0  0.6046869060276837  0.21947436229499032  0.048564072814716676  1.0000
  C   C203      1.0  0.39531309397232384  0.21947436229499023  0.951435927185291  1.0000
  C   C204      1.0  0.39531309397232367  0.7805256377050172  0.04856407281471663  1.0000
  C   C205      1.0  0.780525637705017  0.9514359271852908  0.6046869060276837  1.0000
  C   C206      1.0  0.780525637705017  0.6046869060276838  0.9514359271852908  1.0000
  C   C207      1.0  0.21947436229499037  0.048564072814716475  0.6046869060276838  1.0000
  C   C208      1.0  0.7805256377050172  0.048564072814716516  0.39531309397232367  1.0000
  C   C209      1.0  0.39531309397232367  0.04856407281471663  0.7805256377050173  1.0000
  C   C210      1.0  0.3953130939723238  0.9514359271852906  0.21947436229499032  1.0000
  C   C211      1.0  0.6046869060276837  0.048564072814716516  0.21947436229499037  1.0000
  C   C212      1.0  0.6046869060276837  0.9514359271852909  0.7805256377050173  1.0000
  C   C213      1.0  0.21947436229499032  0.39531309397232384  0.9514359271852909  1.0000
  C   C214      1.0  0.2194743622949903  0.9514359271852907  0.39531309397232384  1.0000
  C   C215      1.0  0.8953130939723248  0.4514359271852904  0.7194743622949923  1.0000
  C   C216      1.0  0.8953130939723246  0.5485640728147168  0.2805256377050153  1.0000
  C   C217      1.0  0.28052563770501543  0.5485640728147168  0.8953130939723247  1.0000
  C   C218      1.0  0.3359164344561621  0.9079477617467693  0.8385446573142787  1.0000
  C   C219      1.0  0.6640835655438453  0.09205223825323822  0.8385446573142789  1.0000
  C   C220      1.0  0.6640835655438453  0.907947761746769  0.16145534268572884  1.0000
  C   C221      1.0  0.3359164344561622  0.09205223825323824  0.1614553426857288  1.0000
  C   C222      1.0  0.16145534268572878  0.09205223825323824  0.3359164344561622  1.0000
  C   C223      1.0  0.1614553426857288  0.9079477617467689  0.6640835655438453  1.0000
  C   C224      1.0  0.1614553426857288  0.3359164344561621  0.09205223825323833  1.0000
  C   C225      1.0  0.8385446573142786  0.0920522382532384  0.6640835655438454  1.0000
  C   C226      1.0  0.6640835655438453  0.16145534268572884  0.9079477617467694  1.0000
  C   C227      1.0  0.33591643445616204  0.1614553426857287  0.09205223825323842  1.0000
  C   C228      1.0  0.3359164344561621  0.8385446573142787  0.907947761746769  1.0000
  C   C229      1.0  0.6640835655438453  0.8385446573142787  0.09205223825323841  1.0000
  C   C230      1.0  0.09205223825323826  0.6640835655438452  0.8385446573142787  1.0000
  C   C231      1.0  0.907947761746769  0.33591643445616204  0.8385446573142789  1.0000
  C   C232      1.0  0.8385446573142787  0.9079477617467693  0.3359164344561622  1.0000
  C   C233      1.0  0.09205223825323833  0.3359164344561622  0.1614553426857288  1.0000
  C   C234      1.0  0.16145534268572884  0.6640835655438453  0.9079477617467693  1.0000
  C   C235      1.0  0.8385446573142787  0.33591643445616204  0.9079477617467693  1.0000
  C   C236      1.0  0.16145534268572878  0.907947761746769  0.3359164344561622  1.0000
  C   C237      1.0  0.16145534268572875  0.09205223825323817  0.6640835655438453  1.0000
  C   C238      1.0  0.3359164344561621  0.8385446573142787  0.09205223825323831  1.0000
  C   C239      1.0  0.6640835655438451  0.8385446573142787  0.907947761746769  1.0000
  C   C240      1.0  0.6640835655438454  0.16145534268572861  0.09205223825323842  1.0000
  C   C241      1.0  0.3359164344561622  0.16145534268572878  0.9079477617467694  1.0000
  C   C242      1.0  0.8385446573142787  0.6640835655438453  0.09205223825323834  1.0000
  C   C243      1.0  0.9079477617467693  0.33591643445616215  0.16145534268572886  1.0000
  C   C244      1.0  0.9079477617467693  0.6640835655438451  0.8385446573142787  1.0000
  C   C245      1.0  0.09205223825323838  0.33591643445616226  0.8385446573142789  1.0000
  C   C246      1.0  0.907947761746769  0.8385446573142787  0.3359164344561622  1.0000
  C   C247      1.0  0.09205223825323823  0.8385446573142787  0.6640835655438455  1.0000
  C   C248      1.0  0.907947761746769  0.16145534268572878  0.6640835655438452  1.0000
  C   C249      1.0  0.09205223825323826  0.16145534268572875  0.3359164344561622  1.0000
  C   C250      1.0  0.09205223825323823  0.6640835655438452  0.16145534268572878  1.0000
  C   C251      1.0  0.9079477617467693  0.6640835655438453  0.16145534268572895  1.0000
  C   C252      1.0  0.09205223825323833  0.16145534268572873  0.6640835655438454  1.0000
  C   C253      1.0  0.907947761746769  0.1614553426857288  0.33591643445616226  1.0000
  C   C254      1.0  0.5485640728147166  0.7194743622949921  0.8953130939723246  1.0000
  C   C255      1.0  0.4514359271852906  0.719474362294992  0.10468690602768281  1.0000
  C   C256      1.0  0.5485640728147168  0.28052563770501554  0.10468690602768309  1.0000
  C   C257      1.0  0.4514359271852905  0.10468690602768284  0.28052563770501554  1.0000
  C   C258      1.0  0.5485640728147169  0.10468690602768285  0.7194743622949921  1.0000
  C   C259      1.0  0.4514359271852906  0.8953130939723248  0.7194743622949922  1.0000
  C   C260      1.0  0.4514359271852906  0.28052563770501526  0.8953130939723248  1.0000
  C   C261      1.0  0.5485640728147165  0.8953130939723245  0.28052563770501543  1.0000
  C   C262      1.0  0.10468690602768298  0.719474362294992  0.5485640728147169  1.0000
  C   C263      1.0  0.8953130939723248  0.7194743622949922  0.4514359271852905  1.0000
  C   C264      1.0  0.8953130939723246  0.28052563770501526  0.5485640728147166  1.0000
  C   C265      1.0  0.28052563770501554  0.4514359271852905  0.10468690602768296  1.0000
  C   C266      1.0  0.719474362294992  0.5485640728147169  0.10468690602768298  1.0000
  C   C267      1.0  0.7194743622949922  0.45143592718529046  0.8953130939723248  1.0000
  C   C268      1.0  0.10468690602768291  0.28052563770501543  0.45143592718529046  1.0000
  C   C269      1.0  0.28052563770501526  0.8953130939723246  0.45143592718529063  1.0000
  C   C270      1.0  0.7194743622949923  0.8953130939723247  0.5485640728147168  1.0000
  C   C271      1.0  0.7194743622949921  0.1046869060276827  0.4514359271852905  1.0000
  C   C272      1.0  0.09205223825323833  0.8385446573142787  0.33591643445616215  1.0000
  C   C273      1.0  0.907947761746769  0.8385446573142789  0.6640835655438452  1.0000
  C   C274      1.0  0.1614553426857288  0.6640835655438452  0.09205223825323833  1.0000
  C   C275      1.0  0.16145534268572884  0.33591643445616215  0.9079477617467693  1.0000
  C   C276      1.0  0.8385446573142789  0.335916434456162  0.09205223825323842  1.0000
  C   C277      1.0  0.8385446573142787  0.6640835655438452  0.9079477617467689  1.0000
  C   C278      1.0  0.6640835655438453  0.09205223825323824  0.16145534268572875  1.0000
  C   C279      1.0  0.3359164344561622  0.907947761746769  0.16145534268572878  1.0000
  C   C280      1.0  0.33591643445616226  0.09205223825323826  0.8385446573142789  1.0000
  C   C281      1.0  0.6640835655438452  0.907947761746769  0.8385446573142786  1.0000
  C   C282      1.0  0.1046869060276828  0.4514359271852905  0.7194743622949921  1.0000
  C   C283      1.0  0.10468690602768298  0.5485640728147168  0.28052563770501554  1.0000
  C   C284      1.0  0.8953130939723246  0.4514359271852906  0.2805256377050153  1.0000
  C   C285      1.0  0.8953130939723247  0.5485640728147168  0.7194743622949922  1.0000
  C   C286      1.0  0.28052563770501543  0.10468690602768288  0.5485640728147168  1.0000
  C   C287      1.0  0.2387307555542839  0.5452821690785472  0.38494787428279903  1.0000
  C   C288      1.0  0.23873075555428383  0.4547178309214605  0.6150521257172086  1.0000
