data_image0
_chemical_formula_structural       C288
_chemical_formula_sum              "C288"
_cell_length_a       14.681435810506594
_cell_length_b       14.681435810506594
_cell_length_c       14.681435810506594
_cell_angle_alpha    90.0
_cell_angle_beta     90.0
_cell_angle_gamma    90.0

_space_group_name_H-M_alt    "P 1"
_space_group_IT_number       1

loop_
  _space_group_symop_operation_xyz
  'x, y, z'

loop_
  _atom_site_type_symbol
  _atom_site_label
  _atom_site_symmetry_multiplicity
  _atom_site_fract_x
  _atom_site_fract_y
  _atom_site_fract_z
  _atom_site_occupancy
  C   C1        1.0  0.22005437570600828  0.9510211957733468  0.6067771117176929  1.0000
  C   C2        1.0  0.1164982979270792  0.046002960233784765  0.2546954811901539  1.0000
  C   C3        1.0  0.8835017020729201  0.9539970397662152  0.25469548119015395  1.0000
  C   C4        1.0  0.88350170207292  0.04600296023378477  0.745304518809845  1.0000
  C   C5        1.0  0.11649829792707915  0.9539970397662152  0.7453045188098447  1.0000
  C   C6        1.0  0.33750185590626114  0.4072710612268177  0.16852126760721556  1.0000
  C   C7        1.0  0.33750185590626125  0.5927289387731818  0.831478732392784  1.0000
  C   C8        1.0  0.745304518809845  0.11649829792707932  0.9539970397662151  1.0000
  C   C9        1.0  0.6624981440937382  0.4072710612268178  0.8314787323927839  1.0000
  C   C10       1.0  0.8314787323927841  0.33750185590626125  0.5927289387731813  1.0000
  C   C11       1.0  0.1685212676072157  0.3375018559062613  0.40727106122681755  1.0000
  C   C12       1.0  0.16852126760721567  0.6624981440937383  0.5927289387731817  1.0000
  C   C13       1.0  0.831478732392784  0.6624981440937386  0.4072710612268174  1.0000
  C   C14       1.0  0.4072710612268176  0.8314787323927844  0.6624981440937382  1.0000
  C   C15       1.0  0.5927289387731816  0.16852126760721586  0.6624981440937382  1.0000
  C   C16       1.0  0.6624981440937383  0.5927289387731818  0.16852126760721559  1.0000
  C   C17       1.0  0.4072710612268177  0.16852126760721595  0.3375018559062611  1.0000
  C   C18       1.0  0.7453045188098448  0.8835017020729202  0.046002960233784515  1.0000
  C   C19       1.0  0.25469548119015406  0.11649829792707932  0.04600296023378451  1.0000
  C   C20       1.0  0.7453045188098448  0.04600296023378476  0.1164982979270791  1.0000
  C   C21       1.0  0.745304518809845  0.9539970397662152  0.8835017020729201  1.0000
  C   C22       1.0  0.11649829792707919  0.25469548119015406  0.953997039766215  1.0000
  C   C23       1.0  0.8835017020729201  0.25469548119015434  0.04600296023378446  1.0000
  C   C24       1.0  0.8835017020729201  0.745304518809845  0.9539970397662149  1.0000
  C   C25       1.0  0.11649829792707919  0.745304518809845  0.046002960233784515  1.0000
  C   C26       1.0  0.25469548119015406  0.8835017020729203  0.9539970397662149  1.0000
  C   C27       1.0  0.046002960233784626  0.11649829792707928  0.7453045188098449  1.0000
  C   C28       1.0  0.04600296023378462  0.8835017020729203  0.2546954811901539  1.0000
  C   C29       1.0  0.9539970397662151  0.11649829792707933  0.25469548119015395  1.0000
  C   C30       1.0  0.046002960233784695  0.25469548119015417  0.116498297927079  1.0000
  C   C31       1.0  0.9539970397662151  0.2546954811901542  0.88350170207292  1.0000
  C   C32       1.0  0.04600296023378462  0.745304518809845  0.8835017020729201  1.0000
  C   C33       1.0  0.953997039766215  0.745304518809845  0.1164982979270791  1.0000
  C   C34       1.0  0.953997039766215  0.8835017020729202  0.7453045188098447  1.0000
  C   C35       1.0  0.2546954811901541  0.9539970397662152  0.11649829792707904  1.0000
  C   C36       1.0  0.5927289387731817  0.8314787323927842  0.3375018559062611  1.0000
  C   C37       1.0  0.5927289387731816  0.33750185590626125  0.16852126760721556  1.0000
  C   C38       1.0  0.5927289387731817  0.168521267607216  0.33750185590626114  1.0000
  C   C39       1.0  0.40727106122681767  0.8314787323927841  0.33750185590626103  1.0000
  C   C40       1.0  0.5927289387731817  0.8314787323927842  0.6624981440937382  1.0000
  C   C41       1.0  0.40727106122681755  0.1685212676072158  0.6624981440937382  1.0000
  C   C42       1.0  0.5927289387731816  0.6624981440937386  0.16852126760721559  1.0000
  C   C43       1.0  0.4072710612268176  0.6624981440937383  0.8314787323927839  1.0000
  C   C44       1.0  0.1685212676072157  0.33750185590626147  0.5927289387731817  1.0000
  C   C45       1.0  0.5927289387731817  0.3375018559062613  0.831478732392784  1.0000
  C   C46       1.0  0.6624981440937383  0.1685212676072159  0.5927289387731817  1.0000
  C   C47       1.0  0.6624981440937382  0.8314787323927842  0.4072710612268174  1.0000
  C   C48       1.0  0.33750185590626125  0.8314787323927842  0.5927289387731813  1.0000
  C   C49       1.0  0.33750185590626114  0.1685212676072158  0.40727106122681755  1.0000
  C   C50       1.0  0.1685212676072157  0.5927289387731818  0.6624981440937382  1.0000
  C   C51       1.0  0.8314787323927841  0.4072710612268177  0.6624981440937382  1.0000
  C   C52       1.0  0.4072710612268176  0.33750185590626125  0.16852126760721556  1.0000
  C   C53       1.0  0.40727106122681767  0.3375018559062614  0.8314787323927841  1.0000
  C   C54       1.0  0.8314787323927841  0.33750185590626125  0.40727106122681744  1.0000
  C   C55       1.0  0.16852126760721584  0.6624981440937385  0.4072710612268176  1.0000
  C   C56       1.0  0.40727106122681767  0.6624981440937385  0.16852126760721559  1.0000
  C   C57       1.0  0.5927289387731816  0.6624981440937385  0.831478732392784  1.0000
  C   C58       1.0  0.3375018559062613  0.8314787323927842  0.40727106122681744  1.0000
  C   C59       1.0  0.33750185590626125  0.1685212676072158  0.5927289387731817  1.0000
  C   C60       1.0  0.6624981440937383  0.16852126760721597  0.4072710612268176  1.0000
  C   C61       1.0  0.6624981440937382  0.8314787323927841  0.5927289387731813  1.0000
  C   C62       1.0  0.8314787323927839  0.6624981440937385  0.5927289387731813  1.0000
  C   C63       1.0  0.8314787323927841  0.4072710612268178  0.33750185590626103  1.0000
  C   C64       1.0  0.1685212676072157  0.40727106122681783  0.6624981440937382  1.0000
  C   C65       1.0  0.8314787323927841  0.5927289387731818  0.6624981440937382  1.0000
  C   C66       1.0  0.6624981440937382  0.5927289387731818  0.831478732392784  1.0000
  C   C67       1.0  0.6624981440937383  0.4072710612268178  0.16852126760721559  1.0000
  C   C68       1.0  0.33750185590626125  0.5927289387731817  0.16852126760721556  1.0000
  C   C69       1.0  0.33750185590626125  0.4072710612268178  0.8314787323927841  1.0000
  C   C70       1.0  0.16852126760721584  0.5927289387731818  0.33750185590626114  1.0000
  C   C71       1.0  0.831478732392784  0.5927289387731818  0.3375018559062611  1.0000
  C   C72       1.0  0.25469548119015406  0.04600296023378476  0.8835017020729201  1.0000
  C   C73       1.0  0.11649829792707919  0.9539970397662152  0.25469548119015395  1.0000
  C   C74       1.0  0.38350170207292045  0.45399703976621497  0.2453045188098457  1.0000
  C   C75       1.0  0.6164982979270792  0.5460029602337845  0.24530451880984558  1.0000
  C   C76       1.0  0.6164982979270793  0.453997039766215  0.7546954811901538  1.0000
  C   C77       1.0  0.3835017020729205  0.5460029602337845  0.754695481190154  1.0000
  C   C78       1.0  0.754695481190154  0.5460029602337846  0.38350170207292034  1.0000
  C   C79       1.0  0.7546954811901541  0.45399703976621486  0.6164982979270791  1.0000
  C   C80       1.0  0.7546954811901541  0.38350170207292056  0.5460029602337841  1.0000
  C   C81       1.0  0.24530451880984575  0.5460029602337844  0.6164982979270793  1.0000
  C   C82       1.0  0.6164982979270793  0.7546954811901542  0.45399703976621475  1.0000
  C   C83       1.0  0.3835017020729205  0.7546954811901542  0.5460029602337841  1.0000
  C   C84       1.0  0.38350170207292045  0.24530451880984586  0.45399703976621475  1.0000
  C   C85       1.0  0.6164982979270792  0.24530451880984586  0.5460029602337843  1.0000
  C   C86       1.0  0.5460029602337843  0.6164982979270796  0.24530451880984558  1.0000
  C   C87       1.0  0.4539970397662148  0.3835017020729206  0.2453045188098457  1.0000
  C   C88       1.0  0.2453045188098459  0.453997039766215  0.3835017020729204  1.0000
  C   C89       1.0  0.5460029602337843  0.3835017020729206  0.754695481190154  1.0000
  C   C90       1.0  0.754695481190154  0.6164982979270796  0.45399703976621475  1.0000
  C   C91       1.0  0.24530451880984572  0.3835017020729206  0.45399703976621475  1.0000
  C   C92       1.0  0.754695481190154  0.453997039766215  0.3835017020729204  1.0000
  C   C93       1.0  0.7546954811901541  0.5460029602337845  0.6164982979270792  1.0000
  C   C94       1.0  0.38350170207292045  0.2453045188098459  0.5460029602337843  1.0000
  C   C95       1.0  0.6164982979270794  0.24530451880984605  0.45399703976621486  1.0000
  C   C96       1.0  0.6164982979270791  0.7546954811901542  0.5460029602337841  1.0000
  C   C97       1.0  0.3835017020729205  0.7546954811901542  0.45399703976621475  1.0000
  C   C98       1.0  0.2453045188098457  0.6164982979270793  0.5460029602337843  1.0000
  C   C99       1.0  0.45399703976621486  0.3835017020729207  0.754695481190154  1.0000
  C   C100      1.0  0.45399703976621497  0.6164982979270794  0.2453045188098457  1.0000
  C   C101      1.0  0.5460029602337843  0.38350170207292056  0.24530451880984563  1.0000
  C   C102      1.0  0.453997039766215  0.24530451880984586  0.3835017020729204  1.0000
  C   C103      1.0  0.5460029602337843  0.24530451880984583  0.6164982979270793  1.0000
  C   C104      1.0  0.45399703976621486  0.7546954811901542  0.6164982979270791  1.0000
  C   C105      1.0  0.5460029602337843  0.7546954811901542  0.38350170207292034  1.0000
  C   C106      1.0  0.5460029602337843  0.6164982979270794  0.7546954811901538  1.0000
  C   C107      1.0  0.8835017020729202  0.046002960233784876  0.2546954811901539  1.0000
  C   C108      1.0  0.45399703976621497  0.6164982979270793  0.7546954811901538  1.0000
  C   C109      1.0  0.453997039766215  0.7546954811901542  0.3835017020729204  1.0000
  C   C110      1.0  0.953997039766215  0.8835017020729204  0.25469548119015395  1.0000
  C   C111      1.0  0.04600296023378465  0.11649829792707932  0.2546954811901539  1.0000
  C   C112      1.0  0.9539970397662151  0.11649829792707932  0.7453045188098447  1.0000
  C   C113      1.0  0.046002960233784515  0.8835017020729203  0.745304518809845  1.0000
  C   C114      1.0  0.9539970397662151  0.745304518809845  0.8835017020729201  1.0000
  C   C115      1.0  0.046002960233784584  0.745304518809845  0.1164982979270791  1.0000
  C   C116      1.0  0.8835017020729201  0.25469548119015417  0.9539970397662149  1.0000
  C   C117      1.0  0.953997039766215  0.25469548119015434  0.11649829792707903  1.0000
  C   C118      1.0  0.7453045188098448  0.8835017020729203  0.9539970397662149  1.0000
  C   C119      1.0  0.7453045188098448  0.11649829792707934  0.04600296023378452  1.0000
  C   C120      1.0  0.254695481190154  0.11649829792707928  0.953997039766215  1.0000
  C   C121      1.0  0.2546954811901542  0.8835017020729202  0.04600296023378446  1.0000
  C   C122      1.0  0.8835017020729201  0.9539970397662152  0.7453045188098448  1.0000
  C   C123      1.0  0.11649829792707919  0.04600296023378475  0.7453045188098449  1.0000
  C   C124      1.0  0.04600296023378463  0.2546954811901541  0.8835017020729201  1.0000
  C   C125      1.0  0.5460029602337843  0.7546954811901542  0.6164982979270792  1.0000
  C   C126      1.0  0.1164982979270792  0.25469548119015417  0.0460029602337845  1.0000
  C   C127      1.0  0.88350170207292  0.745304518809845  0.046002960233784515  1.0000
  C   C128      1.0  0.5460029602337844  0.24530451880984602  0.38350170207292034  1.0000
  C   C129      1.0  0.4539970397662148  0.24530451880984586  0.6164982979270792  1.0000
  C   C130      1.0  0.754695481190154  0.6164982979270794  0.5460029602337841  1.0000
  C   C131      1.0  0.7546954811901541  0.38350170207292056  0.45399703976621475  1.0000
  C   C132      1.0  0.24530451880984575  0.3835017020729206  0.5460029602337843  1.0000
  C   C133      1.0  0.24530451880984577  0.6164982979270794  0.45399703976621486  1.0000
  C   C134      1.0  0.11649829792707915  0.745304518809845  0.9539970397662151  1.0000
  C   C135      1.0  0.6164982979270791  0.5460029602337845  0.7546954811901538  1.0000
  C   C136      1.0  0.38350170207292045  0.5460029602337845  0.24530451880984563  1.0000
  C   C137      1.0  0.6164982979270794  0.453997039766215  0.2453045188098457  1.0000
  C   C138      1.0  0.745304518809845  0.9539970397662152  0.1164982979270791  1.0000
  C   C139      1.0  0.7453045188098449  0.046002960233784765  0.8835017020729201  1.0000
  C   C140      1.0  0.254695481190154  0.9539970397662152  0.88350170207292  1.0000
  C   C141      1.0  0.2546954811901543  0.04600296023378477  0.11649829792707901  1.0000
  C   C142      1.0  0.3835017020729205  0.453997039766215  0.754695481190154  1.0000
  C   C143      1.0  0.16852126760721592  0.4072710612268179  0.3375018559062611  1.0000
  C   C144      1.0  0.837501855906261  0.9072710612268178  0.6685212676072155  1.0000
  C   C145      1.0  0.837501855906261  0.09272893877318236  0.3314787323927834  1.0000
  C   C146      1.0  0.27994562429399134  0.451021195773347  0.8932228882823064  1.0000
  C   C147      1.0  0.27994562429399134  0.5489788042266533  0.10677711171769273  1.0000
  C   C148      1.0  0.7200543757060075  0.4510211957733469  0.10677711171769283  1.0000
  C   C149      1.0  0.6067771117176929  0.951021195773347  0.22005437570600814  1.0000
  C   C150      1.0  0.606777111717693  0.04897880422665319  0.7799456242939923  1.0000
  C   C151      1.0  0.39322288828230667  0.9510211957733468  0.7799456242939921  1.0000
  C   C152      1.0  0.7200543757060073  0.5489788042266533  0.8932228882823064  1.0000
  C   C153      1.0  0.3932228882823068  0.04897880422665323  0.22005437570600822  1.0000
  C   C154      1.0  0.22005437570600828  0.6067771117176931  0.9510211957733467  1.0000
  C   C155      1.0  0.22005437570600822  0.3932228882823068  0.04897880422665292  1.0000
  C   C156      1.0  0.7799456242939922  0.3932228882823068  0.9510211957733465  1.0000
  C   C157      1.0  0.9510211957733467  0.7799456242939925  0.3932228882823065  1.0000
  C   C158      1.0  0.04897880422665306  0.22005437570600833  0.39322288828230656  1.0000
  C   C159      1.0  0.9510211957733467  0.22005437570600836  0.6067771117176929  1.0000
  C   C160      1.0  0.7799456242939922  0.6067771117176931  0.04897880422665288  1.0000
  C   C161      1.0  0.04897880422665296  0.7799456242939926  0.6067771117176929  1.0000
  C   C162      1.0  0.10677711171769298  0.7200543757060074  0.4510211957733466  1.0000
  C   C163      1.0  0.8932228882823066  0.2799456242939914  0.4510211957733467  1.0000
  C   C164      1.0  0.10677711171769307  0.45102119577334693  0.27994562429399117  1.0000
  C   C165      1.0  0.7200543757060073  0.8932228882823068  0.4510211957733466  1.0000
  C   C166      1.0  0.27994562429399134  0.8932228882823067  0.5489788042266531  1.0000
  C   C167      1.0  0.27994562429399145  0.10677711171769298  0.45102119577334676  1.0000
  C   C168      1.0  0.7200543757060073  0.10677711171769314  0.5489788042266532  1.0000
  C   C169      1.0  0.5489788042266532  0.7200543757060075  0.10677711171769289  1.0000
  C   C170      1.0  0.10677711171769286  0.2799456242939915  0.5489788042266531  1.0000
  C   C171      1.0  0.4510211957733468  0.2799456242939914  0.10677711171769273  1.0000
  C   C172      1.0  0.4510211957733467  0.7200543757060074  0.8932228882823064  1.0000
  C   C173      1.0  0.5489788042266532  0.8932228882823067  0.7200543757060074  1.0000
  C   C174      1.0  0.45102119577334676  0.8932228882823067  0.2799456242939911  1.0000
  C   C175      1.0  0.5489788042266533  0.10677711171769314  0.27994562429399117  1.0000
  C   C176      1.0  0.4510211957733468  0.10677711171769298  0.7200543757060073  1.0000
  C   C177      1.0  0.8932228882823064  0.7200543757060075  0.5489788042266531  1.0000
  C   C178      1.0  0.5489788042266532  0.27994562429399145  0.8932228882823064  1.0000
  C   C179      1.0  0.10677711171769286  0.5489788042266533  0.7200543757060073  1.0000
  C   C180      1.0  0.9510211957733467  0.6067771117176931  0.7799456242939921  1.0000
  C   C181      1.0  0.9510211957733468  0.3932228882823069  0.22005437570600822  1.0000
  C   C182      1.0  0.9510211957733467  0.7799456242939925  0.6067771117176928  1.0000
  C   C183      1.0  0.04897880422665311  0.7799456242939926  0.3932228882823065  1.0000
  C   C184      1.0  0.9510211957733467  0.2200543757060083  0.39322288828230656  1.0000
  C   C185      1.0  0.04897880422665318  0.3932228882823068  0.22005437570600822  1.0000
  C   C186      1.0  0.9510211957733467  0.3932228882823068  0.7799456242939921  1.0000
  C   C187      1.0  0.04897880422665304  0.6067771117176931  0.7799456242939923  1.0000
  C   C188      1.0  0.048978804226653024  0.22005437570600836  0.606777111717693  1.0000
  C   C189      1.0  0.9510211957733467  0.6067771117176931  0.22005437570600814  1.0000
  C   C190      1.0  0.39322288828230667  0.7799456242939926  0.9510211957733465  1.0000
  C   C191      1.0  0.6067771117176929  0.7799456242939926  0.04897880422665288  1.0000
  C   C192      1.0  0.606777111717693  0.22005437570600836  0.9510211957733467  1.0000
  C   C193      1.0  0.22005437570600822  0.04897880422665319  0.39322288828230656  1.0000
  C   C194      1.0  0.7799456242939922  0.9510211957733471  0.3932228882823065  1.0000
  C   C195      1.0  0.7799456242939922  0.04897880422665311  0.6067771117176929  1.0000
  C   C196      1.0  0.39322288828230667  0.22005437570600836  0.04897880422665292  1.0000
  C   C197      1.0  0.048978804226653044  0.606777111717693  0.2200543757060082  1.0000
  C   C198      1.0  0.22005437570600828  0.6067771117176932  0.04897880422665295  1.0000
  C   C199      1.0  0.7799456242939925  0.3932228882823069  0.048978804226652926  1.0000
  C   C200      1.0  0.04897880422665307  0.3932228882823068  0.7799456242939922  1.0000
  C   C201      1.0  0.6067771117176927  0.7799456242939926  0.9510211957733467  1.0000
  C   C202      1.0  0.606777111717693  0.2200543757060083  0.04897880422665295  1.0000
  C   C203      1.0  0.39322288828230667  0.22005437570600836  0.9510211957733467  1.0000
  C   C204      1.0  0.3932228882823067  0.7799456242939926  0.048978804226652926  1.0000
  C   C205      1.0  0.7799456242939922  0.951021195773347  0.6067771117176928  1.0000
  C   C206      1.0  0.7799456242939922  0.606777111717693  0.9510211957733467  1.0000
  C   C207      1.0  0.22005437570600828  0.04897880422665316  0.606777111717693  1.0000
  C   C208      1.0  0.7799456242939925  0.048978804226653246  0.3932228882823065  1.0000
  C   C209      1.0  0.39322288828230667  0.04897880422665316  0.7799456242939922  1.0000
  C   C210      1.0  0.3932228882823067  0.951021195773347  0.22005437570600822  1.0000
  C   C211      1.0  0.606777111717693  0.048978804226653246  0.2200543757060082  1.0000
  C   C212      1.0  0.606777111717693  0.951021195773347  0.7799456242939921  1.0000
  C   C213      1.0  0.22005437570600825  0.3932228882823068  0.9510211957733467  1.0000
  C   C214      1.0  0.22005437570600825  0.9510211957733468  0.39322288828230656  1.0000
  C   C215      1.0  0.8932228882823066  0.4510211957733469  0.7200543757060073  1.0000
  C   C216      1.0  0.8932228882823066  0.5489788042266535  0.2799456242939913  1.0000
  C   C217      1.0  0.27994562429399134  0.5489788042266533  0.8932228882823064  1.0000
  C   C218      1.0  0.33147873239278364  0.9072710612268179  0.8375018559062609  1.0000
  C   C219      1.0  0.6685212676072159  0.0927289387731823  0.837501855906261  1.0000
  C   C220      1.0  0.6685212676072156  0.907271061226818  0.16249814409373844  1.0000
  C   C221      1.0  0.3314787323927838  0.09272893877318238  0.1624981440937385  1.0000
  C   C222      1.0  0.16249814409373858  0.0927289387731823  0.3314787323927835  1.0000
  C   C223      1.0  0.16249814409373858  0.9072710612268178  0.6685212676072155  1.0000
  C   C224      1.0  0.16249814409373858  0.3314787323927837  0.09272893877318207  1.0000
  C   C225      1.0  0.837501855906261  0.09272893877318225  0.6685212676072156  1.0000
  C   C226      1.0  0.6685212676072159  0.1624981440937387  0.9072710612268178  1.0000
  C   C227      1.0  0.33147873239278364  0.16249814409373864  0.09272893877318207  1.0000
  C   C228      1.0  0.3314787323927837  0.8375018559062612  0.9072710612268177  1.0000
  C   C229      1.0  0.6685212676072156  0.8375018559062614  0.09272893877318211  1.0000
  C   C230      1.0  0.09272893877318218  0.668521267607216  0.837501855906261  1.0000
  C   C231      1.0  0.9072710612268178  0.3314787323927837  0.8375018559062609  1.0000
  C   C232      1.0  0.837501855906261  0.907271061226818  0.3314787323927834  1.0000
  C   C233      1.0  0.09272893877318229  0.3314787323927838  0.16249814409373847  1.0000
  C   C234      1.0  0.16249814409373853  0.668521267607216  0.9072710612268178  1.0000
  C   C235      1.0  0.837501855906261  0.33147873239278375  0.9072710612268177  1.0000
  C   C236      1.0  0.16249814409373858  0.9072710612268179  0.3314787323927834  1.0000
  C   C237      1.0  0.16249814409373858  0.09272893877318229  0.6685212676072156  1.0000
  C   C238      1.0  0.33147873239278375  0.8375018559062614  0.09272893877318206  1.0000
  C   C239      1.0  0.6685212676072154  0.8375018559062614  0.9072710612268177  1.0000
  C   C240      1.0  0.6685212676072159  0.1624981440937387  0.09272893877318207  1.0000
  C   C241      1.0  0.33147873239278364  0.16249814409373864  0.9072710612268177  1.0000
  C   C242      1.0  0.837501855906261  0.668521267607216  0.09272893877318211  1.0000
  C   C243      1.0  0.9072710612268178  0.3314787323927838  0.16249814409373847  1.0000
  C   C244      1.0  0.9072710612268178  0.668521267607216  0.8375018559062609  1.0000
  C   C245      1.0  0.0927289387731822  0.33147873239278375  0.837501855906261  1.0000
  C   C246      1.0  0.9072710612268177  0.8375018559062614  0.3314787323927834  1.0000
  C   C247      1.0  0.09272893877318211  0.837501855906261  0.6685212676072156  1.0000
  C   C248      1.0  0.9072710612268178  0.16249814409373864  0.6685212676072155  1.0000
  C   C249      1.0  0.09272893877318218  0.16249814409373867  0.3314787323927835  1.0000
  C   C250      1.0  0.0927289387731822  0.668521267607216  0.16249814409373842  1.0000
  C   C251      1.0  0.9072710612268177  0.668521267607216  0.16249814409373844  1.0000
  C   C252      1.0  0.09272893877318217  0.16249814409373864  0.6685212676072156  1.0000
  C   C253      1.0  0.9072710612268178  0.16249814409373867  0.33147873239278347  1.0000
  C   C254      1.0  0.5489788042266531  0.7200543757060075  0.8932228882823064  1.0000
  C   C255      1.0  0.45102119577334676  0.7200543757060075  0.10677711171769283  1.0000
  C   C256      1.0  0.5489788042266532  0.2799456242939915  0.10677711171769273  1.0000
  C   C257      1.0  0.4510211957733468  0.10677711171769314  0.27994562429399117  1.0000
  C   C258      1.0  0.5489788042266532  0.10677711171769298  0.7200543757060073  1.0000
  C   C259      1.0  0.4510211957733468  0.8932228882823067  0.7200543757060073  1.0000
  C   C260      1.0  0.4510211957733468  0.2799456242939915  0.8932228882823064  1.0000
  C   C261      1.0  0.5489788042266532  0.8932228882823068  0.2799456242939913  1.0000
  C   C262      1.0  0.10677711171769286  0.7200543757060074  0.5489788042266532  1.0000
  C   C263      1.0  0.8932228882823066  0.7200543757060075  0.4510211957733466  1.0000
  C   C264      1.0  0.8932228882823066  0.27994562429399134  0.5489788042266531  1.0000
  C   C265      1.0  0.27994562429399145  0.451021195773347  0.10677711171769273  1.0000
  C   C266      1.0  0.7200543757060073  0.5489788042266535  0.10677711171769289  1.0000
  C   C267      1.0  0.7200543757060073  0.4510211957733468  0.8932228882823064  1.0000
  C   C268      1.0  0.10677711171769286  0.27994562429399145  0.45102119577334676  1.0000
  C   C269      1.0  0.2799456242939914  0.8932228882823067  0.4510211957733467  1.0000
  C   C270      1.0  0.7200543757060073  0.8932228882823067  0.5489788042266531  1.0000
  C   C271      1.0  0.7200543757060075  0.10677711171769325  0.4510211957733466  1.0000
  C   C272      1.0  0.09272893877318222  0.8375018559062612  0.3314787323927834  1.0000
  C   C273      1.0  0.9072710612268176  0.8375018559062614  0.6685212676072155  1.0000
  C   C274      1.0  0.16249814409373853  0.668521267607216  0.09272893877318207  1.0000
  C   C275      1.0  0.16249814409373858  0.33147873239278375  0.9072710612268177  1.0000
  C   C276      1.0  0.837501855906261  0.3314787323927838  0.09272893877318206  1.0000
  C   C277      1.0  0.837501855906261  0.668521267607216  0.9072710612268177  1.0000
  C   C278      1.0  0.6685212676072159  0.09272893877318236  0.16249814409373842  1.0000
  C   C279      1.0  0.33147873239278375  0.9072710612268179  0.16249814409373847  1.0000
  C   C280      1.0  0.33147873239278364  0.09272893877318229  0.837501855906261  1.0000
  C   C281      1.0  0.6685212676072156  0.907271061226818  0.8375018559062609  1.0000
  C   C282      1.0  0.10677711171769286  0.45102119577334693  0.7200543757060073  1.0000
  C   C283      1.0  0.10677711171769295  0.5489788042266533  0.27994562429399117  1.0000
  C   C284      1.0  0.8932228882823066  0.4510211957733469  0.27994562429399117  1.0000
  C   C285      1.0  0.8932228882823066  0.5489788042266535  0.7200543757060074  1.0000
  C   C286      1.0  0.27994562429399134  0.10677711171769298  0.5489788042266531  1.0000
  C   C287      1.0  0.2453045188098458  0.5460029602337845  0.38350170207292034  1.0000
  C   C288      1.0  0.24530451880984572  0.453997039766215  0.6164982979270792  1.0000
