#############################################################
#             ______       _    _          _                #
#            (_____ \     \ \  / /        | |               #
#             _____) )   _ \ \/ / |_  ____| |               #
#            |  ____/ | | | )  (|  _)/ _  | |               #
#            | |    | |_| |/ /\ \ |_( (_| | |___            #
#            |_|     \__  /_/  \_\___)__|_|_____)           #
#                   (____/                                  #
#---------------------(version    1.1.1)--------------------#
#       A Python package for random crystal generation      #
#       url: https://github.com/qzhu2017/pyxtal             #
#       @Zhu's group at U. North Carolina at Charlotte      #
#############################################################
data_from_pyxtal

_symmetry_space_group_name_H-M 'Fm-3'
_symmetry_Int_Tables_number                  202
_symmetry_cell_setting                     cubic
_cell_length_a           12.946938
_cell_length_b           12.946938
_cell_length_c           12.946938
_cell_angle_alpha        90.000000
_cell_angle_beta         90.000000
_cell_angle_gamma        90.000000
_cell_volume           2170.207350

loop_
 _symmetry_equiv_pos_site_id
 _symmetry_equiv_pos_as_xyz
1 'x, y, z'
2 '-x, -y, z'
3 '-x, y, -z'
4 'x, -y, -z'
5 'z, x, y'
6 'z, -x, -y'
7 '-z, -x, y'
8 '-z, x, -y'
9 'y, z, x'
10 '-y, z, -x'
11 'y, -z, -x'
12 '-y, -z, x'
13 '-x, -y, -z'
14 'x, y, -z'
15 'x, -y, z'
16 '-x, y, z'
17 '-z, -x, -y'
18 '-z, x, y'
19 'z, x, -y'
20 'z, -x, y'
21 '-y, -z, -x'
22 'y, -z, x'
23 '-y, z, x'
24 'y, z, -x'
25 'x, y+1/2, z+1/2'
26 '-x, -y+1/2, z+1/2'
27 '-x, y+1/2, -z+1/2'
28 'x, -y+1/2, -z+1/2'
29 'z, x+1/2, y+1/2'
30 'z, -x+1/2, -y+1/2'
31 '-z, -x+1/2, y+1/2'
32 '-z, x+1/2, -y+1/2'
33 'y, z+1/2, x+1/2'
34 '-y, z+1/2, -x+1/2'
35 'y, -z+1/2, -x+1/2'
36 '-y, -z+1/2, x+1/2'
37 '-x, -y+1/2, -z+1/2'
38 'x, y+1/2, -z+1/2'
39 'x, -y+1/2, z+1/2'
40 '-x, y+1/2, z+1/2'
41 '-z, -x+1/2, -y+1/2'
42 '-z, x+1/2, y+1/2'
43 'z, x+1/2, -y+1/2'
44 'z, -x+1/2, y+1/2'
45 '-y, -z+1/2, -x+1/2'
46 'y, -z+1/2, x+1/2'
47 '-y, z+1/2, x+1/2'
48 'y, z+1/2, -x+1/2'
49 'x+1/2, y, z+1/2'
50 '-x+1/2, -y, z+1/2'
51 '-x+1/2, y, -z+1/2'
52 'x+1/2, -y, -z+1/2'
53 'z+1/2, x, y+1/2'
54 'z+1/2, -x, -y+1/2'
55 '-z+1/2, -x, y+1/2'
56 '-z+1/2, x, -y+1/2'
57 'y+1/2, z, x+1/2'
58 '-y+1/2, z, -x+1/2'
59 'y+1/2, -z, -x+1/2'
60 '-y+1/2, -z, x+1/2'
61 '-x+1/2, -y, -z+1/2'
62 'x+1/2, y, -z+1/2'
63 'x+1/2, -y, z+1/2'
64 '-x+1/2, y, z+1/2'
65 '-z+1/2, -x, -y+1/2'
66 '-z+1/2, x, y+1/2'
67 'z+1/2, x, -y+1/2'
68 'z+1/2, -x, y+1/2'
69 '-y+1/2, -z, -x+1/2'
70 'y+1/2, -z, x+1/2'
71 '-y+1/2, z, x+1/2'
72 'y+1/2, z, -x+1/2'
73 'x+1/2, y+1/2, z'
74 '-x+1/2, -y+1/2, z'
75 '-x+1/2, y+1/2, -z'
76 'x+1/2, -y+1/2, -z'
77 'z+1/2, x+1/2, y'
78 'z+1/2, -x+1/2, -y'
79 '-z+1/2, -x+1/2, y'
80 '-z+1/2, x+1/2, -y'
81 'y+1/2, z+1/2, x'
82 '-y+1/2, z+1/2, -x'
83 'y+1/2, -z+1/2, -x'
84 '-y+1/2, -z+1/2, x'
85 '-x+1/2, -y+1/2, -z'
86 'x+1/2, y+1/2, -z'
87 'x+1/2, -y+1/2, z'
88 '-x+1/2, y+1/2, z'
89 '-z+1/2, -x+1/2, -y'
90 '-z+1/2, x+1/2, y'
91 'z+1/2, x+1/2, -y'
92 'z+1/2, -x+1/2, y'
93 '-y+1/2, -z+1/2, -x'
94 'y+1/2, -z+1/2, x'
95 '-y+1/2, z+1/2, x'
96 'y+1/2, z+1/2, -x'

loop_
 _atom_site_label
 _atom_site_type_symbol
 _atom_site_symmetry_multiplicity
 _atom_site_fract_x
 _atom_site_fract_y
 _atom_site_fract_z
 _atom_site_occupancy
C      C       32     0.132247    0.132247    0.132247 1
C      C       32     0.375399    0.375399    0.375399 1
C      C       96     0.232862    0.184226    0.565927 1
C      C       96     0.883422    0.748465    0.285901 1
#END

