data_image0
_chemical_formula_structural       C6
_chemical_formula_sum              "C6"
_cell_length_a       2.5218964762250264
_cell_length_b       2.521896476225029
_cell_length_c       6.19378410000893
_cell_angle_alpha    89.9999999999999
_cell_angle_beta     90.0
_cell_angle_gamma    120.00000000000004

_space_group_name_H-M_alt    "P 1"
_space_group_IT_number       1

loop_
  _space_group_symop_operation_xyz
  'x, y, z'

loop_
  _atom_site_type_symbol
  _atom_site_label
  _atom_site_symmetry_multiplicity
  _atom_site_fract_x
  _atom_site_fract_y
  _atom_site_fract_z
  _atom_site_occupancy
  C   C1        1.0  0.0  5.474081101866721e-31  0.12499755424527037  1.0000
  C   C2        1.0  0.9999999999999999  0.0  0.8750024457547297  1.0000
  C   C3        1.0  0.6666666666666669  0.33333333333333337  0.4583308875786036  1.0000
  C   C4        1.0  0.6666666666666667  0.33333333333333337  0.20833577908806278  1.0000
  C   C5        1.0  0.33333333333333337  0.6666666666666666  0.7916642209119367  1.0000
  C   C6        1.0  0.3333333333333335  0.6666666666666666  0.5416691124213961  1.0000
